Version 4
SHEET 1 880 680
WIRE -32 -192 -80 -192
WIRE 96 -192 48 -192
WIRE -80 -176 -80 -192
WIRE -80 -176 -160 -176
WIRE 96 -176 96 -192
WIRE 112 -176 96 -176
WIRE -80 -64 -80 -176
WIRE -48 -64 -80 -64
WIRE 96 -64 96 -176
WIRE 96 -64 48 -64
WIRE 128 -64 96 -64
WIRE 208 -64 128 -64
WIRE 128 -32 128 -64
WIRE 432 -32 368 -32
WIRE -80 -16 -80 -64
WIRE -80 -16 -112 -16
WIRE 368 -16 368 -32
WIRE 432 -16 432 -32
WIRE 464 -16 432 -16
WIRE -32 16 -32 -16
WIRE 0 16 -32 16
WIRE -464 32 -608 32
WIRE -432 32 -464 32
WIRE -304 32 -352 32
WIRE -224 32 -304 32
WIRE -112 32 -112 -16
WIRE -112 32 -128 32
WIRE 432 32 432 -16
WIRE -304 48 -304 32
WIRE 0 48 0 16
WIRE 16 48 0 48
WIRE 128 48 80 48
WIRE 288 48 256 48
WIRE -80 80 -80 64
WIRE -80 80 -128 80
WIRE 0 80 0 48
WIRE 0 80 -80 80
WIRE 128 80 128 48
WIRE 128 80 80 80
WIRE 208 80 208 -64
WIRE 240 80 208 80
WIRE 256 80 256 48
WIRE 256 80 240 80
WIRE 288 80 256 80
WIRE 368 80 368 64
WIRE 368 80 288 80
WIRE 416 80 368 80
WIRE 432 80 416 80
WIRE 592 80 512 80
WIRE 592 96 592 80
WIRE 640 96 592 96
WIRE -608 112 -608 32
WIRE -464 112 -464 32
WIRE -352 112 -464 112
WIRE -208 112 -208 80
WIRE -208 112 -256 112
WIRE 128 112 128 80
WIRE 288 112 288 80
WIRE 592 112 592 96
WIRE -208 128 -208 112
WIRE 80 128 80 80
WIRE 80 128 32 128
WIRE 240 128 240 80
WIRE 0 144 -32 144
WIRE -128 160 -128 80
WIRE -112 160 -128 160
WIRE 32 176 32 128
WIRE 32 176 -32 176
WIRE -608 240 -608 192
WIRE -208 240 -208 208
WIRE -208 240 -608 240
WIRE 0 240 0 144
WIRE 0 240 -208 240
WIRE 128 240 128 192
WIRE 128 240 0 240
WIRE 240 240 240 192
WIRE 240 240 128 240
WIRE 288 240 288 176
WIRE 288 240 240 240
WIRE 288 272 288 240
WIRE 288 368 288 352
WIRE 464 368 288 368
WIRE 592 368 592 192
WIRE 592 368 464 368
WIRE 464 400 464 368
FLAG 288 48 Vc
IOPIN 288 48 Out
FLAG 464 -16 On
IOPIN 464 -16 Out
FLAG 640 96 Sol
IOPIN 640 96 Out
FLAG 464 400 0
FLAG -160 -176 R11
IOPIN -160 -176 Out
FLAG 112 -176 R12
IOPIN 112 -176 Out
SYMBOL voltage -608 96 R0
WINDOW 123 0 0 Left 0
WINDOW 39 24 124 Left 2
SYMATTR SpiceLine Rser=0
SYMATTR InstName V1
SYMATTR Value 15
SYMBOL cap 272 112 R0
SYMATTR InstName C1
SYMATTR Value 47000µF
SYMATTR SpiceLine V=25 Irms=1
SYMBOL ind 576 96 R0
SYMATTR InstName L1
SYMATTR Value 40mH
SYMATTR SpiceLine Rser=30
SYMBOL voltage 368 -32 R0
WINDOW 123 0 0 Left 0
WINDOW 39 0 0 Left 0
SYMATTR InstName V2
SYMATTR Value PULSE(0 -10 7 0.1 0.1 1000 100000 1)
SYMBOL pmos 512 32 R90
SYMATTR InstName M1
SYMATTR Value AO6407
SYMBOL voltage 288 256 R0
WINDOW 123 0 0 Left 0
WINDOW 39 24 124 Left 2
SYMATTR SpiceLine Rser=0
SYMATTR InstName V3
SYMATTR Value 12
SYMBOL schottky 256 192 R180
WINDOW 0 24 64 Left 2
WINDOW 3 24 0 Left 2
SYMATTR InstName D1
SYMATTR Value 30BQ060
SYMATTR Description Diode
SYMATTR Type diode
SYMBOL res -336 16 R90
WINDOW 0 0 56 VBottom 2
WINDOW 3 32 56 VTop 2
SYMATTR InstName R2
SYMATTR Value 4.6
SYMBOL pnp -256 48 R90
SYMATTR InstName Q1
SYMATTR Value BC807-40
SYMBOL pmos -128 80 M270
SYMATTR InstName M2
SYMATTR Value IRF7406
SYMBOL res -224 112 R0
SYMATTR InstName R3
SYMATTR Value 10K
SYMBOL pmos 48 -16 M270
SYMATTR InstName M3
SYMATTR Value IRF7406
SYMBOL res 64 -208 R90
WINDOW 0 0 56 VBottom 2
WINDOW 3 32 56 VTop 2
SYMATTR InstName R1
SYMATTR Value 58
SYMBOL res 112 -48 R0
SYMATTR InstName R4
SYMATTR Value 3.6K
SYMBOL res 112 96 R0
SYMATTR InstName R5
SYMATTR Value 1.8K
SYMBOL res -96 -32 R0
SYMATTR InstName R6
SYMATTR Value 5K
SYMBOL AutoGenerated\\TL431 -80 160 R0
SYMATTR InstName U1
SYMBOL cap 80 32 R90
WINDOW 0 0 32 VBottom 2
WINDOW 3 32 32 VTop 2
SYMATTR InstName C2
SYMATTR Value 1nF
TEXT -32 280 Left 2 !.tran 0 15 0 startup uic
